case5_gridcal.py

from numpy import array

def case5_gridcal():


	ppc = {"version": '2'}
	##-----  Power Flow Data  -----##
	## system MVA base
	ppc["baseMVA"] = 100.0
	ppc["bus"] = array([
	[0.0,	3.0,	0.0,	0.0,	0.0,	0.0,	1.0,	1.0,	0.0,	20.0,	1.0,	2.0,	0.0,	],
	[1.0,	1.0,	40.0,	20.0,		0.0,	0.0,	1.0,	1.0,	0.0,	20.0,	1.0,	2.0,	0.0,	],
	[2.0,	1.0,	25.,	15,		0.0,	0.0,	1.0,	1.0,	0.0,	20.0,	1.0,	2.0,	0.0,	],
	[3.0,	1.0,	40.,	20.,		0.0,	0.0,	1.0,	1.0,	0.0,	20.0,	1.0,	2.0,	0.0,	],
	[4.0,	1.0,	50.,	20.,		0.0,	0.0,	1.0,	1.0,	0.0,	20.0,	1.0,	2.0,	0.0,	]
	])


	ppc["gen"] = array([
	[0.0,	0.0,	0.0,	1000000000.0,	-1000000000.0,	1.0,	1.0,	1.0,	0.0,	0.0,	0.0,	0.0,	0.0,	0.0,	0.0,	0.0,	0.0,	0.0,	0.0,	0.0,	0.0,	]
	])


	ppc["branch"] = array([
	[0.0,	1.0,	0.05,	0.11,	0.02,	1.67662518173,	250.0,	250.0,	1.0,	0.0,	1.0,	-360.0,	360.0,	0.0,	0.0,	0.0,	0.0,	0.0,	0.0,	],
	[0.0,	2.0,	0.05,	0.11,	0.02,	1.67662518173,	250.0,	250.0,	1.0,	0.0,	1.0,	-360.0,	360.0,	0.0,	0.0,	0.0,	0.0,	0.0,	0.0,	],
	[0.0,	4.0,	0.03,	0.08,	0.02,	1.67662518173,	250.0,	250.0,	1.0,	0.0,	1.0,	-360.0,	360.0,	0.0,	0.0,	0.0,	0.0,	0.0,	0.0,	],
	[1.0,	2.0,	0.04,	0.09,	0.02,	1.67662518173,	250.0,	250.0,	1.0,	0.0,	1.0,	-360.0,	360.0,	0.0,	0.0,	0.0,	0.0,	0.0,	0.0,	],
	[1.0,	4.0,	0.04,	0.09,	0.02,	2.5,	250.0,	250.0,	1.0,	0.0,	1.0,	-360.0,	360.0,	0.0,	0.0,	0.0,	0.0,	0.0,	0.0,	],
	[2.0, 	3.0, 	0.06, 	0.13, 	0.03, 	2.5, 250.0, 250.0, 1.0, 0.0, 1.0, -360.0, 360.0, 0.0, 0.0, 0.0, 0.0, 0.0, 0.0,],
	[3.0, 	4.0, 	0.04, 	0.09, 	0.02, 	2.5, 250.0, 250.0, 1.0, 0.0, 1.0, -360.0, 360.0, 0.0, 0.0, 0.0, 0.0, 0.0, 0.0,],
	])

	return ppc